[Format]      =  4.0
[Frequency]   =  0
[Precision]   =  1e-008
[MinAngle]    =  30
[Depth]       =  1
[LengthUnits] =  inches
[ProblemType] =  planar
[Coordinates] =  cartesian
[ACSolver]    =  0
[Comment]     =  "Add comments here."
[PointProps]   = 0
[BdryProps]   = 0
[BlockProps]  = 2
  <BeginBlock>
    <BlockName> = "Air"
    <Mu_x> = 1
    <Mu_y> = 1
    <H_c> = 0
    <H_cAngle> = 0
    <J_re> = 0
    <J_im> = 0
    <Sigma> = 0
    <d_lam> = 0
    <Phi_h> = 0
    <Phi_hx> = 0
    <Phi_hy> = 0
    <LamType> = 0
    <LamFill> = 1
    <NStrands> = 0
    <WireD> = 0
    <BHPoints> = 0
  <EndBlock>
  <BeginBlock>
    <BlockName> = "N35"
    <Mu_x> = 1
    <Mu_y> = 1
    <H_c> = 955000
    <H_cAngle> = 0
    <J_re> = 0
    <J_im> = 0
    <Sigma> = 0.66700000000000004
    <d_lam> = 0
    <Phi_h> = 0
    <Phi_hx> = 0
    <Phi_hy> = 0
    <LamType> = 0
    <LamFill> = 1
    <NStrands> = 0
    <WireD> = 0
    <BHPoints> = 0
  <EndBlock>
[CircuitProps]  = 0
[NumPoints] = 182
390.02992424130002	343.98206081839999	0	1
390.9820104817	349.09415743239998	0	1
355.31539516819998	343.98206081839999	0	1
354.36330892780001	349.09415743239998	0	1
419.02684547690001	273.97730030439999	0	1
423.31487029559997	271.0357287594	0	1
394.47996656359999	249.4304213911	0	1
397.42153810859998	245.1423965724	0	1
350.86535284590002	342.13879293539998	0	1
347.92378130089998	346.4268177541	0	1
326.3184739326	317.59191402210001	0	1
322.03044911389998	320.5334855671	0	1
394.47996656359999	342.13879293539998	0	1
397.42153810859998	346.4268177541	0	1
419.02684547690001	317.59191402210001	0	1
423.31487029559997	320.5334855671	0	1
326.3184739326	273.97730030439999	0	1
322.03044911389998	271.0357287594	0	1
350.86535284590002	249.4304213911	0	1
347.92378130089998	245.1423965724	0	1
420.87011335990002	313.14187169979999	0	1
425.98220997390001	314.09395794020003	0	1
420.87011335990002	278.42734262670001	0	1
425.98220997390001	277.47525638629998	0	1
355.31539516819998	247.587153508	0	1
354.36330892780001	242.47505689409999	0	1
390.02992424130002	247.587153508	0	1
390.9820104817	242.47505689400001	0	1
324.47520604959999	278.42734262670001	0	1
319.36310943559999	277.47525638629998	0	1
324.47520604959999	313.14187169979999	0	1
319.36310943559999	314.09395794020003	0	1
371.99950007102188	350.78234141806928	0	1
411.08593480444284	256.4193405798261	0	1
333.30739312142606	334.19788226284277	0	1
412.03792628817394	334.19788226284277	0	1
334.25938460505722	256.4193405798261	0	1
427.6703939596693	295.11144752942181	0	1
373.34581933857811	240.78687290833074	0	1
317.67492544993075	296.45776679697815	0	1
429.67265970480003	295.78460716320001	0	1
315.67265970480003	295.78460716320001	0	1
430.67265970480003	295.78460716320001	0	1
314.67265970480003	295.78460716320001	0	1
431.67265970480003	295.78460716320001	0	1
313.67265970480003	295.78460716320001	0	1
166	492	0	0
568	490	0	0
608	122	0	0
150	101	0	0
320.69999999999999	319.39999999999998	0	0
322.60000000000002	323.5	0	0
324.19999999999999	326.10000000000002	0	0
326.10000000000002	328.80000000000001	0	0
327.5	330.80000000000001	0	0
329.60000000000002	333.19999999999999	0	0
332.30000000000001	336.10000000000002	0	0
336.60000000000002	339.89999999999998	0	0
338.60000000000002	341.5	0	0
340.5	343.10000000000002	0	0
343.19999999999999	344.5	0	0
345.5	346	0	0
348.5	347.69999999999999	0	0
353.19999999999999	349.60000000000002	0	0
357.89999999999998	350.89999999999998	0	0
362.10000000000002	352	0	0
367	352.5	0	0
375.89999999999998	352.89999999999998	0	0
381	352.30000000000001	0	0
384.69999999999999	351.60000000000002	0	0
388.69999999999999	350.5	0	0
392.5	349.39999999999998	0	0
396.19999999999999	347.89999999999998	0	0
399.60000000000002	346.19999999999999	0	0
403	344.10000000000002	0	0
407.39999999999998	341	0	0
411.19999999999999	337.69999999999999	0	0
413.80000000000001	335.19999999999999	0	0
416.5	332.19999999999999	0	0
418.39999999999998	329.80000000000001	0	0
420.39999999999998	327.10000000000002	0	0
423	322.89999999999998	0	0
425	318.39999999999998	0	0
426.39999999999998	314.80000000000001	0	0
427.19999999999999	312.10000000000002	0	0
472.80000000000001	319.30000000000001	0	0
349.60000000000002	317.39999999999998	0	0
319.80000000000001	319.69999999999999	0	0
321.89999999999998	324.19999999999999	0	0
323.69999999999999	326.89999999999998	0	0
325.5	329.5	0	0
327.19999999999999	331.89999999999998	0	0
329.19999999999999	334.19999999999999	0	0
331.89999999999998	336.89999999999998	0	0
332.89999999999998	338	0	0
336	340.60000000000002	0	0
339.10000000000002	343.10000000000002	0	0
341.39999999999998	344.69999999999999	0	0
345.69999999999999	347.30000000000001	0	0
350.60000000000002	349.5	0	0
355.69999999999999	351.19999999999999	0	0
360	352.39999999999998	0	0
364.30000000000001	353.30000000000001	0	0
369.19999999999999	353.60000000000002	0	0
374.10000000000002	353.80000000000001	0	0
378.19999999999999	353.5	0	0
381.80000000000001	353	0	0
386.10000000000002	352.19999999999999	0	0
389.39999999999998	351.30000000000001	0	0
393	350	0	0
396.5	348.60000000000002	0	0
399.19999999999999	347.19999999999999	0	0
402.60000000000002	345.39999999999998	0	0
405.80000000000001	343.30000000000001	0	0
409.39999999999998	340.60000000000002	0	0
412.5	337.80000000000001	0	0
416.5	333.60000000000002	0	0
419.39999999999998	329.89999999999998	0	0
421.89999999999998	326.30000000000001	0	0
424.19999999999999	322.30000000000001	0	0
426.30000000000001	318	0	0
427.80000000000001	314.10000000000002	0	0
428.89999999999998	310.5	0	0
372	353	0	0
372	353.75	0	0
372	354.75	0	0
391.10000000000002	350	0	0
391.30000000000001	351	0	0
372	361	0	0
381.5	350.30000000000001	0	0
382.39999999999998	361	0	0
377.10000000000002	350.60000000000002	0	0
377.5	361.10000000000002	0	0
386.19999999999999	349.89999999999998	0	0
387.80000000000001	360.5	0	0
389.39999999999998	349.30000000000001	0	0
391.39999999999998	360.10000000000002	0	0
388.10000000000002	349.60000000000002	0	0
391	360.19999999999999	0	0
366.80000000000001	357.39999999999998	0	0
350.30000000000001	350.30000000000001	0	0
354.30000000000001	351.80000000000001	0	0
358.19999999999999	352.89999999999998	0	0
361.39999999999998	353.60000000000002	0	0
365.19999999999999	354.19999999999999	0	0
367.80000000000001	354.5	0	0
370.10000000000002	354.69999999999999	0	0
374.5	354.69999999999999	0	0
378	354.5	0	0
380.10000000000002	354.30000000000001	0	0
382.39999999999998	353.89999999999998	0	0
385.19999999999999	353.39999999999998	0	0
387.80000000000001	352.80000000000001	0	0
390.69999999999999	352	0	0
392.89999999999998	351.19999999999999	0	0
394.89999999999998	350.30000000000001	0	0
396.60000000000002	349.60000000000002	0	0
348.69999999999999	349.60000000000002	0	0
397.69999999999999	349.19999999999999	0	0
349.39999999999998	352.19999999999999	0	0
353.69999999999999	353.80000000000001	0	0
357.60000000000002	355	0	0
361	355.80000000000001	0	0
364.89999999999998	356.39999999999998	0	0
367.60000000000002	356.69999999999999	0	0
369.89999999999998	356.80000000000001	0	0
372	356.89999999999998	0	0
374.60000000000002	356.89999999999998	0	0
378.10000000000002	356.69999999999999	0	0
382.69999999999999	356.19999999999999	0	0
385.60000000000002	355.60000000000002	0	0
388.10000000000002	355	0	0
391.19999999999999	354.19999999999999	0	0
393.5	353.39999999999998	0	0
395.60000000000002	352.5	0	0
397.39999999999998	351.5	0	0
445	403	0	0
372	365.30000000000001	0	0
377.19999999999999	365.30000000000001	0	0
382.39999999999998	365.19999999999999	0	0
388.30000000000001	364.69999999999999	0	0
392.30000000000001	364.19999999999999	0	0
[NumSegments] = 20
0	1	-1	0	0	1
2	3	-1	0	0	1
4	5	-1	0	0	1
6	7	-1	0	0	1
8	9	-1	0	0	1
10	11	-1	0	0	1
12	13	-1	0	0	1
14	15	-1	0	0	1
16	17	-1	0	0	1
18	19	-1	0	0	1
20	21	-1	0	0	1
22	23	-1	0	0	1
24	25	-1	0	0	1
26	27	-1	0	0	1
28	29	-1	0	0	1
30	31	-1	0	0	1
46	49	-1	0	0	0
49	48	-1	0	0	0
48	47	-1	0	0	0
47	46	-1	0	0	0
[NumArcSegments] = 101
1	137	1.6764527836499967	5	0	0	1
32	3	10.164305027499992	5	0	0	1
0	2	21.099999999999994	5	0	0	1
33	5	10.935694972500016	5	0	0	1
7	33	10.164305027500006	5	0	0	1
6	4	21.100000000000023	5	0	0	1
9	34	10.935694972500002	5	0	0	1
34	11	10.164305027500006	5	0	0	1
8	10	21.100000000000009	5	0	0	1
35	13	10.935694972499995	5	0	0	1
15	35	10.164305027499999	5	0	0	1
14	12	21.099999999999994	5	0	0	1
17	36	10.935694972500016	5	0	0	1
36	19	10.164305027500006	5	0	0	1
16	18	21.100000000000023	5	0	0	1
37	21	10.935694972500016	5	0	0	1
23	37	10.164305027500006	5	0	0	1
22	20	21.100000000000023	5	0	0	1
25	38	10.935694972500016	5	0	0	1
38	27	10.164305027500006	5	0	0	1
24	26	21.100000000000023	5	0	0	1
39	29	10.935694972500016	5	0	0	1
31	39	10.164305027500006	5	0	0	1
30	28	21.100000000000023	5	0	0	1
40	84	16.63295717326216	5	0	0	1
41	40	180	5	0	0	1
42	122	14.673060523057289	5	0	0	1
43	42	180	5	0	0	1
44	158	64.899298620424545	5	0	0	1
45	44	180	5	0	0	1
5	23	7.0895746580999912	5	0	0	1
13	1	7.0895746582000001	5	0	0	1
3	9	7.0895746582000072	5	0	0	1
11	31	7.0895746582000072	5	0	0	1
29	17	7.0895746580999912	5	0	0	1
19	25	7.0895746581999788	5	0	0	1
27	7	7.0895746582000356	5	0	0	1
21	15	7.0895746580999983	5	0	0	1
50	41	24.436148620152686	5	0	0	1
52	50	7.5918306275266287	5	0	0	1
53	52	3.3154272388396779	5	0	0	1
54	53	2.4498146989017244	5	0	0	1
59	54	18.026551655206191	5	0	0	1
62	59	9.2617510515437811	5	0	0	1
63	62	5.0853119272257459	5	0	0	1
65	63	9.2546051790757051	5	0	0	1
67	123	3.911550273652058	5	0	0	1
68	67	5.1526914215901405	5	0	0	1
69	68	3.7788548423501096	5	0	0	1
70	69	4.1653323912909688	5	0	0	1
74	70	15.773221421414961	5	0	0	1
75	74	5.4049927734406928	5	0	0	1
76	75	5.0566653439179374	5	0	0	1
77	76	3.6227371003001467	5	0	0	1
78	77	4.0535047210290882	5	0	0	1
79	78	3.0737275098102703	5	0	0	1
80	79	3.3700600478558513	5	0	0	1
82	80	9.8893835999539714	5	0	0	1
83	82	3.8778423966506659	5	0	0	1
84	83	2.8277140628059438	5	0	0	1
87	43	24.338219085454121	5	0	0	1
89	87	8.0941726724703553	5	0	0	1
90	89	3.1244817249375156	5	0	0	1
91	90	2.9026588747412578	5	0	0	1
92	91	3.0103990417288231	5	0	0	1
94	92	5.24109575675919	5	0	0	1
96	94	7.9356697735361772	5	0	0	1
97	96	2.7662892751561481	5	0	0	1
99	97	10.257525287239938	5	0	0	1
101	99	9.726926909697065	5	0	0	1
104	101	14.026480463118931	5	0	0	1
105	104	4.0617043960967658	5	0	0	1
106	105	3.5921669751327254	5	0	0	1
107	106	4.3212103267017463	5	0	0	1
108	107	3.3796126404910996	5	0	0	1
109	108	3.7836959271625923	5	0	0	1
110	109	3.7259105698703965	5	0	0	1
111	110	3.0070958828249128	5	0	0	1
112	111	3.8021644064538025	5	0	0	1
113	112	3.7843071060481246	5	0	0	1
114	113	4.4490497737993353	5	0	0	1
115	114	4.1314939063891094	5	0	0	1
116	115	5.7389215977083854	5	0	0	1
117	116	4.652463208724499	5	0	0	1
118	117	4.3357236610720129	5	0	0	1
119	118	4.5639850511346323	5	0	0	1
120	119	4.7291514007001672	5	0	0	1
121	120	4.1276417148256739	5	0	0	1
122	121	3.7167220669672383	5	0	0	1
123	65	9.9873239222030303	5	0	0	1
125	146	1.8466082081391211	5	0	0	1
137	32	9.2592421888500045	5	0	0	1
141	45	71.844671620004007	5	0	0	1
146	141	15.655135271023864	5	0	0	1
147	125	2.429493952814465	5	0	0	1
148	147	3.4062554077476386	5	0	0	1
149	148	2.0488260204202389	5	0	0	1
151	149	5.0325947056085329	5	0	0	1
152	151	2.5917433427696848	5	0	0	1
154	152	5.1931210917134214	5	0	0	1
158	154	5.0522517593345402	5	0	0	1
[NumHoles] = 0
[NumBlockLabels] = 13
336.30000000000001	332.30000000000001	2	-1	0	315	0	1	0
372.19999999999999	348.89999999999998	2	-1	0	90	0	1	0
407.5	334.39999999999998	2	-1	0	225	0	1	0
424	303	2	-1	0	0	0	1	0
412.10000000000002	262.60000000000002	2	-1	0	135	0	1	0
374.10000000000002	243.19999999999999	2	-1	0	270	0	1	0
337.60000000000002	257	2	-1	0	45	0	1	0
320.10000000000002	295.60000000000002	2	-1	0	180	0	1	0
375.19999999999999	314.10000000000002	1	-1	0	0	0	1	0
335.10000000000002	337.30000000000001	1	-1	0	0	0	1	0
334	338.30000000000001	1	-1	0	0	0	1	0
333.39999999999998	339.19999999999999	1	-1	0	0	0	1	0
329.60000000000002	341.89999999999998	1	-1	0	0	0	1	0
